Version 4
SHEET 1 1064 796
WIRE 256 -16 176 -16
WIRE 256 16 256 -16
WIRE 256 144 256 96
WIRE 176 176 176 -16
WIRE 144 192 -16 192
WIRE 272 208 208 208
WIRE 400 208 352 208
WIRE 496 208 400 208
WIRE 608 208 560 208
WIRE 144 224 128 224
WIRE 608 224 608 208
WIRE 560 240 560 224
WIRE -16 256 -16 192
WIRE 400 256 400 208
WIRE 608 320 608 304
WIRE 752 320 608 320
WIRE 944 320 752 320
WIRE 608 336 608 320
WIRE 752 336 752 320
WIRE 560 352 560 336
WIRE 944 352 944 320
WIRE -16 384 -16 336
WIRE 128 384 128 224
WIRE 400 384 400 336
WIRE 400 384 128 384
WIRE 560 432 560 416
WIRE 432 448 352 448
WIRE 608 448 608 416
WIRE 752 448 752 400
WIRE 944 448 944 432
WIRE 128 496 128 384
WIRE 352 496 352 448
WIRE 432 496 432 448
WIRE 176 512 176 240
WIRE 128 656 128 576
WIRE 176 656 176 592
WIRE 208 656 176 656
WIRE 224 656 208 656
WIRE 352 656 352 576
WIRE 352 656 304 656
FLAG -16 384 0
FLAG 432 496 0
FLAG 256 144 0
FLAG 128 656 0
FLAG 608 448 0
FLAG 752 448 0
FLAG 944 448 0
FLAG 208 720 0
SYMBOL OpAmps\\UniversalOpamp 176 208 R0
SYMATTR InstName U1
SYMATTR Value OPAx210
SYMBOL voltage 256 0 R0
WINDOW 123 0 0 Left 0
WINDOW 39 0 0 Left 0
SYMATTR InstName V1
SYMATTR Value 5
SYMBOL voltage -16 240 R0
WINDOW 123 0 0 Left 0
WINDOW 39 0 0 Left 0
SYMATTR InstName V3
SYMATTR Value SINE(0 3.3 10000)
SYMBOL res 384 240 R0
SYMATTR InstName R1
SYMATTR Value 91kR
SYMBOL res 144 592 R180
WINDOW 0 36 76 Left 2
WINDOW 3 36 40 Left 2
SYMATTR InstName R2
SYMATTR Value 10kR
SYMBOL res 592 208 R0
SYMATTR InstName R3
SYMATTR Value 20kR
SYMBOL res 592 320 R0
SYMATTR InstName R4
SYMATTR Value 62kR
SYMBOL cap 736 336 R0
SYMATTR InstName C1
SYMATTR Value 10pF
SYMBOL res 928 336 R0
SYMATTR InstName R5
SYMATTR Value 10MegR
SYMBOL schottky 496 224 R270
WINDOW 0 32 32 VTop 2
WINDOW 3 0 32 VBottom 2
SYMATTR InstName D2
SYMBOL res 368 192 R90
WINDOW 0 0 56 VBottom 2
WINDOW 3 32 56 VTop 2
SYMATTR InstName R6
SYMATTR Value 0.1R
SYMBOL res 160 496 R0
SYMATTR InstName R7
SYMATTR Value 0.1R
SYMBOL cap 192 656 R0
SYMATTR InstName C2
SYMATTR Value 0.47µF
SYMBOL voltage 352 480 R0
WINDOW 123 0 0 Left 0
WINDOW 39 0 0 Left 0
SYMATTR InstName V4
SYMATTR Value SFFM(5 0.01 20k 0 0)
SYMBOL res 320 640 R90
WINDOW 0 0 56 VBottom 2
WINDOW 3 32 56 VTop 2
SYMATTR InstName R8
SYMATTR Value 22
SYMBOL cap 544 240 R0
SYMATTR InstName C3
SYMATTR Value 68.2pF
SYMBOL cap 544 352 R0
SYMATTR InstName C4
SYMATTR Value 22pF
TEXT -144 -32 Left 2 !.lib OPAx210.LIB
TEXT -144 0 Left 2 !.tran 0.1
