Version 4
SHEET 1 1196 796
WIRE 256 -16 176 -16
WIRE 256 16 256 -16
WIRE 256 128 256 96
WIRE 176 176 176 -16
WIRE 144 192 -128 192
WIRE 320 208 208 208
WIRE 416 208 320 208
WIRE 528 208 480 208
WIRE -128 224 -128 192
WIRE 144 224 128 224
WIRE 528 224 528 208
WIRE 320 240 320 208
WIRE 528 320 528 304
WIRE 640 320 528 320
WIRE 736 320 640 320
WIRE 528 336 528 320
WIRE 736 336 736 320
WIRE -128 352 -128 304
WIRE 128 352 128 224
WIRE 320 352 320 320
WIRE 320 352 128 352
WIRE 640 352 640 320
WIRE 432 368 352 368
WIRE 128 384 128 352
WIRE 352 400 352 368
WIRE 432 400 432 368
WIRE 528 448 528 416
WIRE 640 448 640 416
WIRE 736 448 736 416
WIRE 176 496 176 240
WIRE 224 496 176 496
WIRE 352 496 352 480
WIRE 352 496 304 496
WIRE 176 528 176 496
WIRE 128 544 128 464
WIRE 176 608 176 592
FLAG -128 352 0
FLAG 432 400 0
FLAG 256 128 0
FLAG 128 544 0
FLAG 528 448 0
FLAG 640 448 0
FLAG 736 448 0
FLAG 176 608 0
SYMBOL OpAmps\\UniversalOpamp 176 208 R0
WINDOW 3 -15 37 Left 2
SYMATTR Value OPAx210
SYMATTR InstName U2
SYMBOL voltage 256 0 R0
WINDOW 123 0 0 Left 0
WINDOW 39 0 0 Left 0
SYMATTR InstName V1
SYMATTR Value 5
SYMBOL voltage -128 208 R0
WINDOW 123 0 0 Left 0
WINDOW 39 0 0 Left 0
SYMATTR InstName V2
SYMATTR Value SINE(0 3.3 10000)
SYMBOL res 304 224 R0
SYMATTR InstName R3
SYMATTR Value 91kR
SYMBOL res 144 480 R180
WINDOW 0 36 76 Left 2
WINDOW 3 36 40 Left 2
SYMATTR InstName R2
SYMATTR Value 10kR
SYMBOL res 512 208 R0
SYMATTR InstName R4
SYMATTR Value 20kR
SYMBOL res 512 320 R0
SYMATTR InstName R5
SYMATTR Value 62kR
SYMBOL cap 624 352 R0
SYMATTR InstName C5
SYMATTR Value 10pF
SYMBOL res 720 320 R0
SYMATTR InstName R_pin
SYMATTR Value 1MegR
SYMBOL cap 160 528 R0
SYMATTR InstName C4
SYMATTR Value 0.47µF
SYMBOL voltage 352 384 R0
WINDOW 123 0 0 Left 0
WINDOW 39 0 0 Left 0
SYMATTR InstName U1
SYMATTR Value SINE(5 0.01 20k 0 0)
SYMBOL res 320 480 R90
WINDOW 0 0 56 VBottom 2
WINDOW 3 32 56 VTop 2
SYMATTR InstName R1
SYMATTR Value 22
SYMBOL AutoGenerated\\BAS70 448 208 R0
SYMATTR InstName D1
TEXT -120 16 Left 2 !.lib OPAx210.LIB
TEXT -120 48 Left 2 !.tran 0.05
